47
Lattice="1.0 0.0 0.0 0.0 1.0 0.0 0.0 0.0 1.0" Properties=species:S:1:pos:R:3:Z:I:1 pbc="F F F"
N     -4.48109484      -0.34565601      -0.48848701        7 
C     -3.33693290       0.01563100       0.35363901        6 
C     -2.24235296       0.65769202      -0.47303200        6 
O     -2.20166612       0.43356699      -1.71452904        8 
C     -2.84348202      -1.20506501       1.17750895        6 
C     -2.19198203      -2.40223503       0.42836499        6 
C     -0.73397499      -2.14313412       0.02744900        6 
C     -3.01025796      -2.91481996      -0.76222599        6 
N     -1.26554799       1.54299295       0.11450700        7 
C     -0.20575701       2.16903496      -0.66576999        6 
C      0.84902298       1.15769994      -1.03362405        6 
O      1.12670803       0.97461700      -2.24990606        8 
C      0.35803401       3.28622198       0.21604700        6 
C     -0.16891500       3.02259302       1.62391996        6 
C     -1.35745597       2.08320403       1.46303499        6 
N      1.52909505       0.40560600      -0.01625800        7 
C      2.61010194      -0.53514802      -0.32839900        6 
C      2.85258794      -1.45797598       0.84007198        6 
O      2.72970009      -2.70216894       0.68934798        8 
C      3.89333701       0.23180801      -0.68992501        6 
O      4.93605518      -0.65582502      -0.99398601        8 
O      3.20971704      -0.95758402       2.09027505        8 
H     -5.25171614      -0.69342703       0.12768801        1 
H     -4.84738684       0.52451801      -0.93996102        1 
H     -3.69746590       0.77386099       1.08341002        1 
H     -2.13596201      -0.85255402       1.95636296        1 
H     -3.71582198      -1.59906101       1.74434495        1 
H     -2.15839005      -3.23588395       1.16560900        1 
H     -0.16862200      -1.71826303       0.88286400        1 
H     -0.66108799      -1.45739901      -0.83821899        1 
H     -0.24796000      -3.09985995      -0.25990099        1 
H     -2.58944297      -3.87821388      -1.12148499        1 
H     -2.98484612      -2.19379497      -1.60524201        1 
H     -4.06312418      -3.09338403      -0.45711300        1 
H     -0.63619202       2.61855793      -1.58928001        1 
H     -0.03044100       4.26646423      -0.13878000        1 
H      1.47006404       3.32852793       0.20548800        1 
H     -0.46837699       3.96884704       2.12491202        1 
H      0.62125701       2.52983308       2.23179102        1 
H     -1.30600202       1.27114201       2.21669698        1 
H     -2.30661798       2.65029907       1.57635403        1 
H      1.19918096       0.50030798       0.97050297        1 
H      2.30532503      -1.15234601      -1.20352101        1 
H      4.20660114       0.87229401       0.16159800        1 
H      3.70870399       0.90613300      -1.55611300        1 
H      4.73865700      -1.02806997      -1.89300799        1 
H      3.30654812       0.03698100       2.25470090        1 
