60
Lattice="1.0 0.0 0.0 0.0 1.0 0.0 0.0 0.0 1.0" Properties=species:S:1:pos:R:3:Z:I:1 pbc="F F F"
N     -2.12635994      -2.31368303       0.25337699        7 
C     -2.81300211      -1.66773796      -0.87014699        6 
C     -2.17254305      -0.33554700      -1.19308996        6 
O     -2.87598705       0.62174600      -1.61744499        8 
C     -4.35439014      -1.60051703      -0.66013700        6 
C     -4.84867191      -1.10422695       0.72556198        6 
C     -6.37337494      -1.25756800       0.81514603        6 
C     -4.46302605       0.35423699       1.01011002        6 
N     -0.74827802      -0.18404000      -1.08852196        7 
C     -0.08020100       1.12113905      -1.17772305        6 
C      1.42903197       0.97057098      -1.30680704        6 
O      1.96239805       1.28628504      -2.40453792        8 
C     -0.52833700       2.10516500      -0.04914700        6 
C     -0.39273599       1.52541697       1.36929095        6 
C      0.19629499       3.46815801      -0.17772301        6 
C     -0.45076701       4.57000303       0.66279501        6 
N      2.28780198       0.58837903      -0.21731099        7 
C      2.11731195      -0.63723803       0.57120901        6 
C      2.71255112      -0.51604998       1.96116805        6 
O      2.69229507      -1.51794302       2.72453189        8 
C      2.63463497      -1.88767302      -0.19443201        6 
C      4.10007906      -1.90581298      -0.71785599        6 
C      4.29096079      -1.12621605      -2.02769208        6 
C      5.14646578      -1.49833202       0.32529801        6 
O      3.23510194       0.68029302       2.45491195        8 
H     -2.15085006      -1.69377005       1.09453702        1 
H     -2.61511707      -3.20773602       0.48978099        1 
H     -2.64061403      -2.30267000      -1.76666296        1 
H     -4.81905079      -0.99079400      -1.46596003        1 
H     -4.74124098      -2.63385510      -0.80456102        1 
H     -4.41554022      -1.74423695       1.52367795        1 
H     -6.66397381      -2.31872201       0.66077000        1 
H     -6.87629223      -0.63248998       0.04596100        1 
H     -6.73438120      -0.94905198       1.81968606        1 
H     -3.36394811       0.45949700       1.10288703        1 
H     -4.90304899       0.68644398       1.97457600        1 
H     -4.83325577       1.02318597       0.20430100        1 
H     -0.17874600      -1.05754304      -1.07954299        1 
H     -0.42523700       1.58093798      -2.13224101        1 
H     -1.61168694       2.29915309      -0.20579600        1 
H     -0.80186301       0.49658701       1.42251599        1 
H      0.66288400       1.52535701       1.70204604        1 
H     -0.97750700       2.13646603       2.08773398        1 
H      0.17211600       3.79665804      -1.23990202        1 
H      1.26294506       3.36787391       0.11956900        1 
H     -0.32213101       4.36562395       1.74578702        1 
H     -1.53257406       4.65641785       0.42656499        1 
H      0.03767200       5.54115391       0.43623799        1 
H      3.23852301       1.01912606      -0.22520600        1 
H      1.03973806      -0.80451000       0.75046402        1 
H      2.49769902      -2.77442694       0.46312201        1 
H      1.95852304      -2.07080507      -1.05669498        1 
H      4.31234217      -2.96930504      -0.97030002        1 
H      4.33733320      -0.03417200      -1.85712898        1 
H      5.24870920      -1.42775798      -2.50336409        1 
H      3.47173500      -1.35080802      -2.74306798        1 
H      5.07899904      -0.41581199       0.55833799        1 
H      5.01286507      -2.08947396       1.25558805        1 
H      6.16646194      -1.70281804      -0.06464800        1 
H      3.20420504       1.55203497       1.94347703        1 
