52
Lattice="1.0 0.0 0.0 0.0 1.0 0.0 0.0 0.0 1.0" Properties=species:S:1:pos:R:3:Z:I:1 pbc="F F F"
N      3.33762789      -3.01050711      -0.27945200        7 
C      3.70596004      -1.83331096       0.51624501        6 
C      3.07962394      -0.58425099      -0.05966400        6 
O      2.59061909      -0.60008401      -1.22288799        8 
C      5.24569082      -1.66547894       0.57828701        6 
O      5.79876518      -1.70001698      -0.71303898        8 
C      5.90788984      -2.74943590       1.43265498        6 
N      3.04660106       0.62116599       0.72346699        7 
C      2.53205490       1.90368295       0.23211500        6 
C      1.08931398       1.75982201      -0.19317199        6 
O      0.74141902       2.01091409      -1.38025904        8 
C      3.45034194       2.45827103      -0.87431097        6 
O      3.07314396       3.76292706      -1.22557199        8 
N      0.11330900       1.32036400       0.76265001        7 
C     -1.27923000       1.05575895       0.38944599        6 
C     -1.98691797       2.35468102       0.11814400        6 
O     -2.05251694       3.24205303       1.01124704        8 
C     -1.99065804       0.26353601       1.50336599        6 
C     -3.37504101      -0.15362400       1.09419405        6 
C     -4.57314014       0.35978901       1.58168197        6 
C     -3.72937393      -1.11498296       0.16723400        6 
N     -5.62419891      -0.24554300       0.98308301        7 
C     -5.10017681      -1.13937402       0.12636299        6 
C     -2.95576310      -1.96779096      -0.62111902        6 
C     -5.79243898      -2.01062202      -0.71366000        6 
C     -3.62765002      -2.85704303      -1.47943997        6 
C     -5.03934002      -2.87746501      -1.52661002        6 
O     -2.57214999       2.57657409      -1.12437999        8 
H      2.29340506      -3.07028794      -0.31640500        1 
H      3.63907099      -3.86909699       0.23409700        1 
H      3.30691195      -1.95959496       1.54868102        1 
H      5.48790598      -0.69112498       1.06569099        1 
H      5.66823721      -0.79861498      -1.10824800        1 
H      5.82367516      -3.74571609       0.95090300        1 
H      6.98732281      -2.51761699       1.55477905        1 
H      5.44391012      -2.78754902       2.44122910        1 
H      3.39741993       0.58281302       1.70729899        1 
H      2.55385494       2.62961102       1.07500005        1 
H      4.50810099       2.45007300      -0.52419299        1 
H      3.39779711       1.81809795      -1.77969897        1 
H      3.39273310       4.35760784      -0.49762899        1 
H      0.43121701       1.12838304       1.74037898        1 
H     -1.28422701       0.43943399      -0.53620100        1 
H     -1.40458405      -0.64915001       1.74635804        1 
H     -2.04396296       0.88082999       2.42719007        1 
H     -4.66924906       1.13761604       2.32800508        1 
H     -6.63632679      -0.05545500       1.15601206        1 
H     -1.87474096      -1.95432103      -0.57413900        1 
H     -6.87439394      -2.02239203      -0.73923498        1 
H     -3.05886793      -3.53178000      -2.10582805        1 
H     -5.54527712      -3.56676412      -2.18999410        1 
H     -3.05441594       3.44472694      -1.32367396        1 
