46
Lattice="1.0 0.0 0.0 0.0 1.0 0.0 0.0 0.0 1.0" Properties=species:S:1:pos:R:3:Z:I:1 pbc="F F F"
N      2.58557606      -0.87134802       0.98845297        7 
C      3.28599501       0.21187399       0.28924799        6 
C      2.31694794       1.04851997      -0.51737601        6 
O      2.74127412       2.07647610      -1.11018395        8 
C      4.36508512      -0.36361000      -0.65464801        6 
C      5.49998283      -0.99677801       0.09897200        6 
O      5.69821692      -2.23759604       0.00650700        8 
N      6.36762524      -0.20119700       0.90680999        7 
N      0.94471300       0.67217398      -0.68195403        7 
C     -0.04299300       0.86231703       0.38401899        6 
C     -0.73221701      -0.44436800       0.67505002        6 
O     -0.71052003      -0.90179002       1.85005796        8 
C     -1.07999897       1.93020403      -0.01360800        6 
C     -0.44629300       3.31909800      -0.16607600        6 
C     -1.49473095       4.35430717      -0.45080799        6 
O     -2.15429306       4.30035210      -1.52233100        8 
O     -1.74450397       5.38386202       0.45252800        8 
N     -1.41852903      -1.15765905      -0.36695299        7 
C     -2.28943610      -2.30766702      -0.10376400        6 
C     -1.95901597      -3.41801906      -1.06598794        6 
O     -2.06481504      -3.23043299      -2.30743504        8 
C     -3.76440597      -1.89723599      -0.24502400        6 
C     -4.13688803      -0.84935999       0.76008302        6 
O     -4.50267887       0.29363900       0.37576300        8 
O     -4.08035803      -1.13972795       2.11973095        8 
O     -1.53110802      -4.65920401      -0.60160500        8 
H      2.05091095      -0.45107800       1.78166902        1 
H      3.28569388      -1.49699903       1.44742095        1 
H      3.76741004       0.88000798       1.03891003        1 
H      4.79215097       0.44273499      -1.28975999        1 
H      3.89791799      -1.11237097      -1.33253098        1 
H      6.24324608       0.83380401       0.96446598        1 
H      7.14979076      -0.64660400       1.43593800        1 
H      0.60352701       0.52188802      -1.65819097        1 
H      0.46477100       1.20858502       1.31276906        1 
H     -1.57362199       1.64347994      -0.96834099        1 
H     -1.86380005       1.98070800       0.77554500        1 
H      0.09734900       3.58341002       0.76643300        1 
H      0.28324100       3.31587291      -1.00322604        1 
H     -1.23440802       5.45695305       1.32452798        1 
H     -1.40870094      -0.76229501      -1.33436203        1 
H     -2.12841105      -2.68690491       0.92888200        1 
H     -3.95210409      -1.51292896      -1.27240705        1 
H     -4.41685581      -2.78303289      -0.08589800        1 
H     -4.32409286      -0.44024199       2.81064701        1 
H     -1.43161094      -4.84907913       0.38829100        1 
