45
Lattice="1.0 0.0 0.0 0.0 1.0 0.0 0.0 0.0 1.0" Properties=species:S:1:pos:R:3:Z:I:1 pbc="F F F"
N     -1.08958304      -0.36867100       1.91844404        7 
C     -1.24548101       0.44242701       0.70797801        6 
C     -0.46763799       1.73781097       0.83272499        6 
O     -0.80625802       2.56391191       1.72444999        8 
C     -2.73417306       0.73721999       0.44437900        6 
C     -3.52885795      -0.54440302       0.15245600        6 
C     -4.99831200      -0.22141600      -0.15406001        6 
C     -5.86109495      -1.48567402      -0.31211600        6 
N     -5.52270079      -2.24894309      -1.51327002        7 
N      0.63309801       2.06123090      -0.04225500        7 
C      1.31483698       1.12837398      -0.93382001        6 
C      1.89579904      -0.03050700      -0.16313300        6 
O      2.61693501       0.19177000       0.84828001        8 
C      2.41701508       1.94396102      -1.61914802        6 
C      2.06955504       3.40778708      -1.36808002        6 
C      1.14678097       3.41572404      -0.15824001        6 
N      1.62647796      -1.37861502      -0.57437998        7 
C      2.11133504      -2.53488803       0.17452800        6 
C      3.59660411      -2.66785002       0.02324900        6 
O      4.09278917      -2.87299299      -1.11564696        8 
O      4.43816996      -2.56821704       1.12768102        8 
H     -0.07490800      -0.58807200       2.04684401        1 
H     -1.39866996       0.18194300       2.75288701        1 
H     -0.87084001      -0.14606600      -0.15278099        1 
H     -3.17651606       1.25500703       1.32437098        1 
H     -2.81696391       1.41702795      -0.43302301        1 
H     -3.47740793      -1.22088003       1.03331602        1 
H     -3.07194805      -1.05957997      -0.71946299        1 
H     -5.41880894       0.37642199       0.68414003        1 
H     -5.06536722       0.39717999      -1.07567000        1 
H     -6.92753077      -1.18067396      -0.37806401        1 
H     -5.75713110      -2.13507009       0.58452803        1 
H     -5.48208380      -1.60394704      -2.33561993        1 
H     -4.58021593      -2.68366599      -1.39172494        1 
H      0.59915000       0.77163899      -1.70662498        1 
H      2.45697093       1.72617805      -2.70883608        1 
H      3.41891193       1.73396695      -1.18152595        1 
H      1.52940297       3.81606507      -2.25069690        1 
H      2.98142409       4.01687193      -1.18523800        1 
H      0.31455100       4.13699484      -0.31201100        1 
H      1.71046102       3.67938209       0.76284498        1 
H      1.01405299      -1.54665399      -1.40417695        1 
H      1.62856996      -3.45769405      -0.21271899        1 
H      1.83106601      -2.42957807       1.24446404        1 
H      4.07148981      -2.39898300       2.05658889        1 
