57
Lattice="1.0 0.0 0.0 0.0 1.0 0.0 0.0 0.0 1.0" Properties=species:S:1:pos:R:3:Z:I:1 pbc="F F F"
N     -3.54352593       2.24944806      -0.28875300        7 
C     -2.27653098       2.89326501      -0.65061498        6 
C     -1.09158099       2.05488205      -0.22020300        6 
O     -0.97833598       1.70237005       0.98532897        8 
C     -2.21359110       4.34892702      -0.11930500        6 
O     -1.01591802       4.95926380      -0.52756602        8 
C     -2.33124900       4.46679401       1.40483105        6 
N     -0.11393800       1.63744402      -1.18981194        7 
C      1.00287104       0.73547900      -0.88640499        6 
C      0.47303700      -0.55184501      -0.29759499        6 
O      0.81217998      -0.91967797       0.86077499        8 
C      2.03978395       1.45644999       0.00536700        6 
C      3.33601499       0.68855202       0.11459400        6 
C      3.73875189       0.14040600       1.34445798        6 
C      4.16884804       0.53909099      -1.00759995        6 
C      4.94293308      -0.56305999       1.44364595        6 
C      5.37274694      -0.16431899      -0.90536600        6 
C      5.76246023      -0.71844202       0.31782401        6 
O      6.96397781      -1.41791403       0.40471300        8 
N     -0.45653799      -1.33854496      -1.05573905        7 
C     -1.28811204      -2.37542105      -0.43644100        6 
C     -1.90407598      -3.24369311      -1.50583899        6 
O     -1.64321804      -4.47525406      -1.53700197        8 
C     -2.36932707      -1.71366298       0.44942701        6 
C     -3.32401490      -2.70837498       1.15344799        6 
C     -4.44708204      -1.93798101       1.86012805        6 
C     -2.58435106      -3.59618497       2.16539407        6 
O     -2.76073503      -2.70667791      -2.46436501        8 
H     -3.64214993       1.37559199      -0.85559601        1 
H     -3.52526093       1.95521104       0.71458602        1 
H     -2.25612402       2.97223592      -1.76065195        1 
H     -3.07503510       4.90967607      -0.55291897        1 
H     -1.10478699       5.14931583      -1.49815202        1 
H     -1.47013795       3.98697805       1.91278398        1 
H     -3.27813506       4.01759481       1.76858795        1 
H     -2.33697891       5.54031801       1.68993700        1 
H     -0.22559500       1.95106995      -2.18038011        1 
H      1.49754798       0.47481400      -1.84766197        1 
H      2.26320791       2.45529389      -0.42919201        1 
H      1.60930598       1.63873100       1.01362705        1 
H      3.11918998       0.25163499       2.22563696        1 
H      3.88830900       0.97093397      -1.96016002        1 
H      5.23843288      -0.98564398       2.39551806        1 
H      6.00491714      -0.27641800      -1.77704597        1 
H      7.27446890      -1.83052802       1.27662396        1 
H     -0.57931697      -1.11044705      -2.06894994        1 
H     -0.63208598      -3.01114893       0.19674499        1 
H     -1.87257600      -1.08857298       1.22324896        1 
H     -2.96706390      -1.02029204      -0.18158101        1 
H     -3.80120111      -3.36472797       0.39352801        1 
H     -5.01307487      -1.32457900       1.12671995        1 
H     -5.15977192      -2.64521599       2.33578610        1 
H     -4.03048801      -1.26724505       2.64237595        1 
H     -1.88325703      -4.28105783       1.64589000        1 
H     -3.30753994      -4.22832489       2.72371292        1 
H     -2.01765895      -2.97575092       2.89246607        1 
H     -2.98793411      -1.71994805      -2.47891307        1 
