50
Lattice="1.0 0.0 0.0 0.0 1.0 0.0 0.0 0.0 1.0" Properties=species:S:1:pos:R:3:Z:I:1 pbc="F F F"
N     -5.07852507      -1.68417394      -0.61272401        7 
C     -4.00871515      -1.17145300       0.24888501        6 
C     -3.16770411      -0.14636201      -0.47600400        6 
O     -3.29927993       0.01529100      -1.72065103        8 
C     -3.13685799      -2.33127093       0.78261501        6 
C     -2.45957589      -3.16098499      -0.27705300        6 
O     -2.59991097      -2.90560794      -1.50370097        8 
O     -1.66460896      -4.23341608       0.11311200        8 
N     -2.21218491       0.63736200       0.25391299        7 
C     -1.24848998       1.52096796      -0.41263801        6 
C     -0.04387600       1.76368296       0.48068300        6 
O      0.23120400       2.93481994       0.85979497        8 
C     -1.93836498       2.82750297      -0.87875801        6 
C     -2.64580989       3.60462904       0.20119600        6 
O     -2.65903902       3.20814705       1.39804399        8 
O     -3.29694104       4.78631115      -0.13687800        8 
N      0.80060601       0.68638903       0.92433703        7 
C      0.82114601      -0.65535700       0.32509300        6 
C      1.28569102      -1.68473399       1.33084500        6 
O      0.56996602      -2.69607997       1.55555606        8 
C      1.66322505      -0.68992299      -0.96956998        6 
C      3.10699892      -0.29170001      -0.77814102        6 
C      4.11525822      -1.27046299      -0.75266898        6 
C      3.46326303       1.06248999      -0.66087598        6 
C      5.45303917      -0.90163600      -0.58302200        6 
C      4.80174494       1.42849600      -0.49176499        6 
C      5.79929399       0.44954601      -0.44986600        6 
O      7.12869692       0.82878202      -0.27883700        8 
O      2.48559809      -1.54570901       2.02698708        8 
H     -5.66362906      -2.34714389      -0.05366400        1 
H     -5.70946217      -0.88744003      -0.86202401        1 
H     -4.47473621      -0.66344899       1.12358499        1 
H     -2.35676908      -1.92603505       1.46187794        1 
H     -3.77508807      -3.00551510       1.39306295        1 
H     -1.19217098      -4.80774307      -0.57473701        1 
H     -2.15380001       0.50804800       1.29004002        1 
H     -0.87148201       1.01470304      -1.32635701        1 
H     -1.18245399       3.48916793      -1.35432506        1 
H     -2.68415093       2.58099604      -1.66351795        1 
H     -3.78162789       5.33214808       0.56555098        1 
H      1.52595997       0.92732698       1.63676500        1 
H     -0.21122700      -0.94142801       0.03673500        1 
H      1.60621798      -1.71551895      -1.39721704        1 
H      1.20808196      -0.02041500      -1.72976506        1 
H      3.86484098      -2.31947994      -0.85069901        1 
H      2.70667291       1.83526504      -0.70620197        1 
H      6.21905994      -1.66607296      -0.55534297        1 
H      5.06451082       2.47443390      -0.39708799        1 
H      7.87451220       0.14358100      -0.24511001        1 
H      3.09037900      -0.74336201       1.90860999        1 
