37
Lattice="1.0 0.0 0.0 0.0 1.0 0.0 0.0 0.0 1.0" Properties=species:S:1:pos:R:3:Z:I:1 pbc="F F F"
N     -6.37346315      -0.22196700      -0.40635300        7 
C     -5.15382624      -0.38413200      -1.18998802        6 
C     -3.96616507      -0.46347001      -0.27860799        6 
O     -3.88972497      -1.41634595       0.54276699        8 
N     -2.92874193       0.53205401      -0.35008901        7 
C     -1.74519897       0.58748198       0.52219099        6 
C     -0.78006202      -0.54556102       0.23360500        6 
O     -1.21246898      -1.61932504      -0.26499200        8 
C     -2.14384508       0.61791903       2.00279689        6 
N      0.62116200      -0.45443699       0.54821402        7 
C      1.33035100       0.80505699       0.81660599        6 
C      1.39141500       1.67059302      -0.41894901        6 
O      1.41181505       2.92366099      -0.29663500        8 
C      2.73834205       0.54568702       1.39280498        6 
C      3.64321303      -0.20387000       0.45464301        6 
N      4.17717218       0.32187101      -0.66652602        7 
C      4.09041214      -1.49578297       0.62287003        6 
C      4.93307686      -0.67836499      -1.16628206        6 
N      4.89893103      -1.78898704      -0.40603399        7 
O      1.44151604       1.11399102      -1.69580603        8 
H     -6.36224890       0.73354602       0.01996200        1 
H     -7.18227482      -0.24247301      -1.06889701        1 
H     -5.21474695      -1.32400095      -1.78011096        1 
H     -5.04900217       0.46364799      -1.90265799        1 
H     -3.04045200       1.30397904      -1.04597497        1 
H     -1.23256099       1.54707599       0.30387801        1 
H     -1.26924896       0.87861401       2.63365412        1 
H     -2.92971301       1.38535202       2.16766000        1 
H     -2.52394199      -0.36738700       2.34176707        1 
H      1.16364300      -1.34776700       0.53418499        1 
H      0.77577102       1.36122096       1.60157299        1 
H      3.21931100       1.51255202       1.65641999        1 
H      2.63048291      -0.03131600       2.33743596        1 
H      3.84678197      -2.17218590       1.43181598        1 
H      5.50871611      -0.59362501      -2.07843709        1 
H      5.40032005      -2.68812108      -0.57859498        1 
H      1.45837903       0.11195200      -1.84097695        1 
