51
Lattice="1.0 0.0 0.0 0.0 1.0 0.0 0.0 0.0 1.0" Properties=species:S:1:pos:R:3:Z:I:1 pbc="F F F"
N     -3.56386209      -2.48963189       0.60407197        7 
C     -3.72308111      -1.33284700      -0.27928501        6 
C     -2.85917807      -0.19777700       0.20502999        6 
O     -2.96760798       0.19450299       1.39886701        8 
C     -5.19288397      -0.88330603      -0.31216499        6 
O     -6.00623703      -1.88112903      -0.86841899        8 
N     -1.92063797       0.42899299      -0.68728697        7 
C     -1.17823601       1.66090798      -0.38502499        6 
C     -0.40477401       1.52499998       0.91451597        6 
O     -0.66155702       2.29978895       1.87606204        8 
C     -2.10745406       2.90317607      -0.42743400        6 
O     -3.10843110       2.81128311       0.55317700        8 
C     -2.75443411       3.06707811      -1.80821502        6 
N      0.62034500       0.53121001       1.09451306        7 
C      1.08939898      -0.39790300       0.06024200        6 
C      0.39832899      -1.72110295       0.22977000        6 
O     -0.19575199      -2.25204110      -0.74655598        8 
C      2.61717510      -0.55831897       0.17122400        6 
C      3.20569301      -1.36554301      -0.99802101        6 
C      4.73064613      -1.47951305      -0.90501201        6 
N      5.36146402      -0.17559500      -1.11393201        7 
C      6.17088604       0.49599299      -0.13248099        6 
N      7.00979424       1.40834403      -0.50790203        7 
N      6.03915310       0.20881000       1.26274002        7 
O      0.42574200      -2.37023592       1.46067095        8 
H     -4.08851624      -3.29572201       0.19310200        1 
H     -2.55734205      -2.77367902       0.59853202        1 
H     -3.41699696      -1.61568606      -1.31193101        1 
H     -5.54559898      -0.67451400       0.72092003        1 
H     -5.29327011       0.05838900      -0.90048701        1 
H     -5.84941196      -1.86200798      -1.84862804        1 
H     -1.76557600      -0.00286300      -1.62617397        1 
H     -0.42447099       1.82203496      -1.18641603        1 
H     -1.47937596       3.80572391      -0.23713700        1 
H     -3.46660590       3.72764707       0.68694299        1 
H     -3.43216991       2.21451497      -2.02709889        1 
H     -1.97448802       3.12476397      -2.59702110        1 
H     -3.34848809       4.00502110      -1.83645499        1 
H      1.00667703       0.41786200       2.06000590        1 
H      0.86990702       0.00655500      -0.94956398        1 
H      2.87559891      -1.05281496       1.13378406        1 
H      3.07458210       0.45535401       0.17534401        1 
H      2.77942491      -2.39189291      -0.99021202        1 
H      2.93183708      -0.88777500      -1.96424198        1 
H      5.02624512      -1.93348598       0.06294400        1 
H      5.08407402      -2.17103505      -1.69964397        1 
H      5.29063082       0.24083400      -2.07025695        1 
H      7.13190079       1.66352797      -1.51334500        1 
H      6.67405510       0.66860902       1.95282698        1 
H      5.26449490      -0.38202599       1.63317597        1 
H     -0.03269200      -3.26466298       1.58633006        1 
