52
Lattice="1.0 0.0 0.0 0.0 1.0 0.0 0.0 0.0 1.0" Properties=species:S:1:pos:R:3:Z:I:1 pbc="F F F"
N      4.74037790      -1.21736395       1.60669601        7 
C      3.84445310      -0.72700298       0.55562103        6 
C      2.42779803      -0.62128800       1.06842899        6 
O      1.83564901      -1.65581799       1.48275006        8 
C      3.89937901      -1.64993894      -0.67418998        6 
C      5.27349520      -1.69126499      -1.27109003        6 
O      5.77987909      -0.64918798      -1.76717305        8 
O      5.98708200      -2.88553500      -1.28676498        8 
N      1.75434005       0.64717501       1.08075404        7 
C      0.36438501       0.78645200       1.53734398        6 
C     -0.59307098       0.10547400       0.58959401        6 
O     -0.23436999      -0.15832600      -0.59138697        8 
C     -0.01241400       2.26759696       1.75468004        6 
C      0.13103200       3.11079502       0.51779300        6 
N      1.09230995       4.04225206       0.35358500        7 
C     -0.69643098       3.09693694      -0.58406103        6 
C      0.83234102       4.56793404      -0.86200398        6 
N     -0.24441700       4.01473904      -1.45078397        7 
N     -1.91588295      -0.23200300       1.03309906        7 
C     -2.88681793      -0.90118802       0.16128901        6 
C     -3.38668704       0.08448200      -0.86002898        6 
O     -3.18896389      -0.12978099      -2.08514190        8 
C     -4.03812408      -1.49560106       1.01159799        6 
C     -5.04005623      -2.42848206       0.28031000        6 
C     -6.01290321      -1.67418694      -0.63626999        6 
C     -4.35412216      -3.57721496      -0.47095501        6 
O     -4.04620790       1.24760795      -0.47038499        8 
H      4.40091896      -2.14442897       1.95385301        1 
H      4.70785093      -0.54996800       2.41187501        1 
H      4.19175100       0.28359401       0.24538501        1 
H      3.18883109      -1.28627801      -1.44845605        1 
H      3.59289193      -2.67980909      -0.38718599        1 
H      6.91580820      -2.93044090      -1.68882203        1 
H      2.29506111       1.49645102       0.80141401        1 
H      0.27837199       0.28186500       2.52512598        1 
H     -1.05640697       2.34515309       2.12848806        1 
H      0.64738601       2.68218303       2.54769111        1 
H     -1.56797600       2.47734499      -0.74124402        1 
H      1.42349601       5.35472918      -1.31156003        1 
H     -0.64822900       4.25555420      -2.38274288        1 
H     -2.17354012      -0.01888700       2.02400494        1 
H     -2.36368895      -1.73646104      -0.35174599        1 
H     -3.57532310      -2.09177494       1.82943106        1 
H     -4.59907722      -0.67746198       1.51367998        1 
H     -5.66187716      -2.89466405       1.07737303        1 
H     -5.51941919      -1.34997296      -1.57419598        1 
H     -6.85797310      -2.34032893      -0.91267800        1 
H     -6.43121576      -0.78669500      -0.11567800        1 
H     -5.11185884      -4.32487679      -0.78884399        1 
H     -3.62068105      -4.08651209       0.18979800        1 
H     -3.83280993      -3.20690107      -1.37879002        1 
H     -4.18746901       1.47229302       0.50682497        1 
