58
Lattice="1.0 0.0 0.0 0.0 1.0 0.0 0.0 0.0 1.0" Properties=species:S:1:pos:R:3:Z:I:1 pbc="F F F"
N     -2.65100193       1.73825598       1.76528096        7 
C     -2.06509590       1.83653796       0.42474401        6 
C     -1.20902705       3.07967305       0.33880100        6 
O     -1.71836197       4.18720102       0.66151202        8 
C     -3.15070891       1.85557199      -0.67193401        6 
C     -3.86913204       0.53192401      -0.76116800        6 
C     -3.19869304      -0.60451400      -1.24552596        6 
C     -5.20922613       0.41827899      -0.35614300        6 
C     -3.85485697      -1.83682203      -1.31028497        6 
C     -5.86361217      -0.81561500      -0.42348799        6 
C     -5.18958902      -1.94558299      -0.89791697        6 
O     -5.85337114      -3.16884589      -0.95576799        8 
N      0.16217200       3.05317903      -0.10127400        7 
C      0.78482401       1.91794002      -0.79950303        6 
C      1.10649800       0.80049598       0.16031000        6 
O      1.53035295       1.07053006       1.31621695        8 
C      2.02877498       2.36099792      -1.60303903        6 
C      3.22355700       2.84350801      -0.75063503        6 
C      4.19544411       1.73863804      -0.44964701        6 
O      4.39583397       1.38616204       0.74312299        8 
N      4.93125677       1.11543703      -1.50265098        7 
N      0.88465899      -0.56299800      -0.23853500        7 
C      0.69401699      -1.68774295       0.68725502        6 
C     -0.45264301      -1.42350304       1.62620199        6 
O     -0.32666999      -0.61655301       2.58633399        8 
C      1.98747694      -2.04114008       1.44509101        6 
C      3.09320807      -2.42016506       0.50510901        6 
N      4.26197577      -1.75571299       0.40967500        7 
C      3.09616590      -3.49737310      -0.35407600        6 
C      4.95299101      -2.44750690      -0.52105701        6 
N      4.27123022      -3.50506997      -0.99978501        7 
O     -1.66874003      -2.06918311       1.42437506        8 
H     -3.40820193       2.45223308       1.87381804        1 
H     -3.09237003       0.79649597       1.87561798        1 
H     -1.43902302       0.94198602       0.26717401        1 
H     -2.68250608       2.06631398      -1.65881598        1 
H     -3.86946702       2.68111396      -0.47300100        1 
H     -2.16695309      -0.53645301      -1.56846595        1 
H     -5.74446583       1.28056097       0.02150400        1 
H     -3.32511210      -2.70574594      -1.67939997        1 
H     -6.89496994      -0.89447802      -0.10396000        1 
H     -5.39262819      -4.00561619      -1.29401505        1 
H      0.67513400       3.96310997      -0.06420100        1 
H      0.05514900       1.53885305      -1.54937994        1 
H      2.33922195       1.53278899      -2.27743292        1 
H      1.71887803       3.19580293      -2.26961088        1 
H      2.87592912       3.30815196       0.19624899        1 
H      3.77178097       3.63026690      -1.31215096        1 
H      5.63226986       0.37281999      -1.28764904        1 
H      4.80619621       1.41913295      -2.49367690        1 
H      0.73253399      -0.75281101      -1.25510097        1 
H      0.40918899      -2.57829094       0.08305500        1 
H      2.31649709      -1.19092000       2.07812595        1 
H      1.79454303      -2.90226507       2.12124705        1 
H      2.30704594      -4.22434521      -0.49536800        1 
H      5.95104122      -2.18245411      -0.84368497        1 
H      4.59231281      -4.19080210      -1.71830904        1 
H     -2.45866990      -1.89318800       2.03356695        1 
