62
Lattice="1.0 0.0 0.0 0.0 1.0 0.0 0.0 0.0 1.0" Properties=species:S:1:pos:R:3:Z:I:1 pbc="F F F"
N     -1.55881095      -3.84601498      -0.27194801        7 
C     -2.09952211      -2.64217210      -0.91029298        6 
C     -0.99022198      -1.64606905      -1.11924505        6 
O     -0.70896399      -1.27591896      -2.29155207        8 
C     -3.24242902      -2.00431895      -0.08807300        6 
C     -4.48447990      -2.90772200      -0.01316800        6 
C     -5.65116215      -2.21600389       0.70593703        6 
N     -6.22829294      -1.14218497      -0.10746900        7 
C     -7.30926609      -0.30550101       0.34107700        6 
N     -7.86230803      -0.47402301       1.50265098        7 
N     -7.78927803       0.73517102      -0.51037401        7 
N     -0.26486599      -1.11500895       0.00193700        7 
C      0.67025399       0.00847400      -0.11078300        6 
C      2.01647305      -0.40818000       0.41971999        6 
O      2.12093306      -0.79841298       1.61527801        8 
C      0.14075699       1.22315097       0.67194498        6 
C     -1.17531896       1.75339603       0.07976300        6 
C     -1.69322705       2.97834611       0.84542698        6 
N     -0.77607000       4.11201000       0.72375900        7 
C     -0.55894703       4.84846783      -0.49395800        6 
N      0.40307200       5.71310616      -0.55841100        7 
N     -1.39868295       4.66128683      -1.63749695        7 
N      3.17573190      -0.36332300      -0.42678899        7 
C      4.50933409      -0.72930402       0.06101800        6 
C      4.99632978       0.31706300       1.03160501        6 
O      5.09180117       1.51917803       0.66712898        8 
C      5.48793221      -0.88019502      -1.11974704        6 
C      6.83511400      -1.37254798      -0.67190200        6 
O      7.84439611      -0.62815499      -0.78423703        8 
O      6.98532486      -2.65140510      -0.14292800        8 
O      5.34158421      -0.02847700       2.33524895        8 
H     -2.23153710      -4.63476610      -0.40741500        1 
H     -1.45604897      -3.69248104       0.75761902        1 
H     -2.50260997      -2.92218304      -1.91066301        1 
H     -3.52341604      -1.04111195      -0.56713498        1 
H     -2.89271593      -1.77551794       0.94244897        1 
H     -4.80463600      -3.20925689      -1.03456903        1 
H     -4.23146200      -3.82944107       0.55308503        1 
H     -6.43758821      -2.97367597       0.91272002        1 
H     -5.29551888      -1.80404997       1.67557395        1 
H     -5.85616112      -0.97239202      -1.06940496        1 
H     -7.57003307      -1.21248305       2.17886591        1 
H     -8.57392025       1.35256302      -0.20376700        1 
H     -7.36113310       0.89362103      -1.44925201        1 
H     -0.46663901      -1.49191499       0.95564801        1 
H      0.78695500       0.31185800      -1.17384601        1 
H     -0.02022500       0.94344002       1.73684204        1 
H      0.90587401       2.03013301       0.63850898        1 
H     -1.02824700       2.00766802      -0.99115700        1 
H     -1.95123994       0.96013600       0.13601699        1 
H     -2.70180202       3.26466990       0.48017201        1 
H     -1.80592799       2.71139407       1.91912699        1 
H     -0.24057800       4.38993597       1.57750797        1 
H      1.03992796       5.89024496       0.25025001        1 
H     -2.22585797       4.02717781      -1.62014198        1 
H     -1.20914996       5.19148684      -2.51710200        1 
H      3.05422997      -0.08304300      -1.42683005        1 
H      4.43508101      -1.71208096       0.57630402        1 
H      5.07614279      -1.60911000      -1.85065496        1 
H      5.59742308       0.09506700      -1.64441395        1 
H      6.19793701      -3.28360200      -0.06448600        1 
H      5.27908993      -0.98522699       2.66166997        1 
