60
Lattice="1.0 0.0 0.0 0.0 1.0 0.0 0.0 0.0 1.0" Properties=species:S:1:pos:R:3:Z:I:1 pbc="F F F"
N     -4.71351624      -2.63676500       0.97283500        7 
C     -4.83021593      -1.81945801      -0.23841800        6 
C     -3.46672106      -1.52463806      -0.82115000        6 
O     -3.19146609      -1.94477797      -1.97795105        8 
C     -5.59998322      -0.51679897       0.04722100        6 
C     -7.02164888      -0.78944898       0.45170000        6 
O     -7.26659012      -1.33966696       1.55764997        8 
O     -8.08014011      -0.42626700      -0.37678799        8 
N     -2.48655701      -0.78759998      -0.07100700        7 
C     -1.12081206      -0.57284403      -0.56667203        6 
C     -0.17304000      -0.27151099       0.57165098        6 
O     -0.49041900       0.58212101       1.44537604        8 
C     -1.07840705       0.54181898      -1.63364601        6 
C     -1.51712298       1.88901699      -1.10977995        6 
C     -2.88281703       2.19312406      -0.98494399        6 
C     -0.56303000       2.85981607      -0.75823098        6 
C     -3.28695202       3.43790698      -0.49366900        6 
C     -0.97095799       4.10373402      -0.26709101        6 
C     -2.33175611       4.39174509      -0.13250300        6 
N      1.10064399      -0.93036902       0.64254802        7 
C      2.09586406      -0.59259498       1.66700399        6 
C      2.56700897       0.83173603       1.50320697        6 
O      2.73201990       1.55414498       2.52118397        8 
C      3.27681208      -1.58773994       1.66347396        6 
C      4.10296011      -1.54395998       0.40530100        6 
C      3.93283606      -2.33279490      -0.72966802        6 
C      5.22498798      -0.77482599       0.15797400        6 
N      4.88571215      -2.05331993      -1.64764595        7 
C      5.66484118      -1.10601199      -1.09825206        6 
C      5.88493109       0.17482600       0.93941200        6 
C      6.78993988      -0.50649101      -1.66264200        6 
C      7.02193499       0.79823297       0.39428699        6 
C      7.47203588       0.45976299      -0.90102100        6 
O      2.82499409       1.36608696       0.24247500        8 
H     -4.15088081      -2.12923193       1.69338596        1 
H     -4.20133686      -3.51790905       0.73624402        1 
H     -5.41276217      -2.39895296      -0.99064499        1 
H     -5.60161591       0.10836700      -0.87131000        1 
H     -5.10209179       0.06739500       0.85071498        1 
H     -7.92158222       0.01691600      -1.27365994        1 
H     -2.74819398      -0.43521699       0.87694901        1 
H     -0.77527303      -1.51102901      -1.05406904        1 
H     -1.71762502       0.26027301      -2.49796104        1 
H     -0.04104900       0.61057901      -2.03043103        1 
H     -3.63245010       1.47000301      -1.27457798        1 
H      0.49484500       2.64964604      -0.85284799        1 
H     -4.34091520       3.66399288      -0.39609799        1 
H     -0.23176201       4.84424877       0.00980100        1 
H     -2.64595890       5.35514021       0.24769500        1 
H      1.30406797      -1.68644500      -0.04785900        1 
H      1.60766697      -0.68628299       2.66295195        1 
H      2.88159394      -2.61779690       1.79994798        1 
H      3.93190789      -1.38311398       2.53772712        1 
H      3.16081810      -3.07759905      -0.87179297        1 
H      4.99735117      -2.49570704      -2.58693004        1 
H      5.53692913       0.42996001       1.93159997        1 
H      7.12997818      -0.77596700      -2.65419102        1 
H      7.55574512       1.54153395       0.97192198        1 
H      8.34882069       0.94503099      -1.30955601        1 
H      2.69846702       0.81981498      -0.60096300        1 
