51
Lattice="1.0 0.0 0.0 0.0 1.0 0.0 0.0 0.0 1.0" Properties=species:S:1:pos:R:3:Z:I:1 pbc="F F F"
N     -4.74905586      -1.66691506       0.05305800        7 
C     -3.53204489      -0.85977697      -0.05501500        6 
C     -2.30525494      -1.74181104      -0.09590800        6 
O     -2.05461907      -2.50899291       0.87346399        8 
C     -3.46522689       0.14698800       1.11010802        6 
C     -2.18741703       0.94329399       1.11127496        6 
C     -1.18416297       0.88110602       2.07428908        6 
C     -1.74466002       1.85490799       0.17019700        6 
N     -0.16453600       1.70699704       1.74988902        7 
C     -0.51270700       2.28949404       0.59021199        6 
C     -2.32783604       2.33279395      -1.00432098        6 
C      0.22781700       3.21541595      -0.14289001        6 
C     -1.60172999       3.26655698      -1.76560605        6 
C     -0.32852200       3.70346904      -1.33861697        6 
N     -1.41805303      -1.68371403      -1.22275496        7 
C     -0.02988000      -2.14312792      -1.15449202        6 
C      0.87503999      -0.96473902      -0.88450003        6 
O      0.89771199      -0.01242500      -1.71220303        8 
C      0.35839301      -2.82172608      -2.46941590        6 
N      1.71839702      -0.90710998       0.28302801        7 
C      2.76560497       0.09329800       0.45772600        6 
C      3.85648203      -0.04389100      -0.57544303        6 
O      3.92124104      -1.06365395      -1.31277704        8 
C      3.31412411      -0.12289100       1.87016797        6 
C      2.29622793      -1.00702298       2.58464003        6 
C      1.48226702      -1.68226004       1.48993194        6 
O      4.81935310       0.95193201      -0.70735598        8 
H     -4.80483818      -2.30047202      -0.77785999        1 
H     -4.69478083      -2.27306509       0.90443701        1 
H     -3.59532499      -0.28452900      -1.00237799        1 
H     -3.55375910      -0.39944300       2.07486391        1 
H     -4.32438707       0.84852898       1.04350305        1 
H     -1.19545901       0.25657201       2.95801711        1 
H      0.71491301       1.85723901       2.29213905        1 
H     -3.30969095       2.00976300      -1.32151496        1 
H      1.20084202       3.54766798       0.19512901        1 
H     -2.02357101       3.65538597      -2.68319011        1 
H      0.22071300       4.42221594      -1.93259895        1 
H     -1.70124495      -1.10634196      -2.04731488        1 
H      0.07707200      -2.90933108      -0.35936999        1 
H      0.25601801      -2.11860204      -3.32395411        1 
H      1.40987599      -3.17773294      -2.41911411        1 
H     -0.30096000      -3.69736004      -2.64952588        1 
H      2.31526303       1.10576200       0.37828100        1 
H      3.44295502       0.84552503       2.40111089        1 
H      4.29418087      -0.65107900       1.84901500        1 
H      2.79677510      -1.75681496       3.23512292        1 
H      1.62896597      -0.37436399       3.21019101        1 
H      1.82837605      -2.72691607       1.33527505        1 
H      0.40415600      -1.67238700       1.75775003        1 
H      4.79808521       1.77961004      -0.12361000        1 
