65
Lattice="1.0 0.0 0.0 0.0 1.0 0.0 0.0 0.0 1.0" Properties=species:S:1:pos:R:3:Z:I:1 pbc="F F F"
N     -1.35277796      -2.90399194       0.78548700        7 
C     -1.88070798      -1.53842497       0.84578502        6 
C     -1.09008706      -0.74067801       1.85637999        6 
O     -1.15539098      -1.06436598       3.07326102        8 
C     -3.38182092      -1.52185798       1.21305895        6 
C     -4.23536301      -2.11044407       0.11771000        6 
C     -4.42277908      -1.40965497      -1.08641803        6 
C     -4.86040878      -3.35700297       0.29197299        6 
C     -5.21428108      -1.95332205      -2.10253406        6 
C     -5.65092087      -3.89704895      -0.72736299        6 
C     -5.82701015      -3.19645405      -1.92372096        6 
N     -0.31089401       0.40961200       1.49024701        7 
C      0.39370301       0.56787097       0.21239699        6 
C      1.87283504       0.68946701       0.47428200        6 
O      2.30383706       1.64163196       1.18156397        8 
C     -0.11809300       1.81838799      -0.52607298        6 
C     -1.56677306       1.64518905      -1.00824296        6 
C     -2.09381199       2.90524292      -1.70535195        6 
N     -2.19748092       4.02546978      -0.76936698        7 
C     -3.20171094       4.10432816       0.25341600        6 
N     -4.12588596       3.19916391       0.33594400        7 
N     -3.18613291       5.19657612       1.17565405        7 
N      2.78892493      -0.27126101      -0.07426900        7 
C      4.23875713      -0.16617200       0.12189100        6 
C      4.75987816       0.99629098      -0.67917699        6 
O      5.35544491       1.94085097      -0.09691200        8 
C      4.92853498      -1.49447799      -0.27024001        6 
C      6.41238213      -1.59434998       0.17758501        6 
C      7.36958313      -0.98127502      -0.85719800        6 
C      6.79804182      -3.06135988       0.41776499        6 
O      4.57780981       1.05321801      -2.05869293        8 
H     -1.79640400      -3.40475702      -0.01833100        1 
H     -1.61121798      -3.42059112       1.65802503        1 
H     -1.77719796      -1.07998705      -0.15591700        1 
H     -3.71249008      -0.47397801       1.38851905        1 
H     -3.53976107      -2.07169604       2.16731405        1 
H     -3.95967793      -0.44225201      -1.23562598        1 
H     -4.73047781      -3.91373992       1.21165299        1 
H     -5.35397291      -1.40988898      -3.02807093        1 
H     -6.12687683      -4.85935116      -0.58984798        1 
H     -6.43943501      -3.61603808      -2.71132207        1 
H     -0.14116099       1.12636697       2.23268604        1 
H      0.23734400      -0.31723800      -0.43734699        1 
H      0.52920699       2.01177812      -1.41051805        1 
H     -0.04935000       2.69936895       0.14967000        1 
H     -2.22617793       1.39184499      -0.15171200        1 
H     -1.60883498       0.80350500      -1.73315299        1 
H     -1.40813696       3.17941308      -2.53667307        1 
H     -3.09052205       2.69886494      -2.15181899        1 
H     -1.52457798       4.81812716      -0.87256902        1 
H     -4.86904287       3.23704910       1.06870306        1 
H     -3.90955710       5.27712679       1.92455196        1 
H     -2.44489408       5.92911100       1.11426497        1 
H      2.40285397      -1.07542503      -0.61988199        1 
H      4.43163395       0.01145000       1.20391405        1 
H      4.35359097      -2.30795002       0.22650300        1 
H      4.83769512      -1.67592895      -1.36372900        1 
H      6.54825306      -1.05659497       1.14188695        1 
H      7.22828197      -1.45374000      -1.85292602        1 
H      8.42400932      -1.13203096      -0.54115403        1 
H      7.21302223       0.11030700      -0.95019197        1 
H      7.85682201      -3.13495398       0.74662501        1 
H      6.16461706      -3.49998498       1.21822095        1 
H      6.66756296      -3.65685797      -0.51159698        1 
H      4.08131695       0.32350701      -2.55533099        1 
