44
Lattice="1.0 0.0 0.0 0.0 1.0 0.0 0.0 0.0 1.0" Properties=species:S:1:pos:R:3:Z:I:1 pbc="F F F"
N     -3.73343110      -2.11858106      -0.54607600        7 
C     -3.26917911      -0.77631098      -0.18561800        6 
C     -1.95966005      -0.85932702       0.56968999        6 
O     -1.91612005      -0.60294199       1.80498397        8 
C     -4.35708618      -0.03361100       0.61608100        6 
C     -5.58167982       0.21572900      -0.21351200        6 
O     -5.91217184       1.39451003      -0.51240098        8 
O     -6.36420107      -0.85258400      -0.64121097        8 
N     -0.76231498      -1.23835599      -0.12557800        7 
C      0.53620797      -1.33378601       0.54903197        6 
C      1.00619197       0.04394300       0.93934202        6 
O      1.26128304       0.28970999       2.14970803        8 
C      1.56487596      -2.03175998      -0.36427200        6 
C      2.90183401      -2.28256893       0.34897700        6 
C      3.85086203      -3.02527809      -0.54516000        6 
O      4.27331209      -2.47937107      -1.59947598        8 
N      4.28816509      -4.34217405      -0.20854200        7 
N      1.16102195       1.06800795      -0.05537700        7 
C      1.74555302       2.37677503       0.25388300        6 
C      1.42194700       3.36246395      -0.84162599        6 
O      1.82424796       3.15491009      -2.01752305        8 
C      3.26754808       2.24492788       0.43216601        6 
O      3.84203005       3.48552108       0.74579197        8 
O      0.67753601       4.50769186      -0.57113802        8 
H     -3.77133489      -2.71388102       0.31401801        1 
H     -3.04332995      -2.55447102      -1.19997799        1 
H     -3.08221412      -0.19767199      -1.11818802        1 
H     -3.95207691       0.94356698       0.96192902        1 
H     -4.64387178      -0.62170702       1.51478195        1 
H     -7.19571209      -0.69730097      -1.19851696        1 
H     -0.83009899      -1.46008003      -1.14524698        1 
H      0.41263899      -1.95819902       1.46274900        1 
H      1.14484406      -3.01113605      -0.68487197        1 
H      1.73616803      -1.42146003      -1.27848399        1 
H      3.37096500      -1.31735003       0.63691700        1 
H      2.72067308      -2.86742806       1.27657604        1 
H      3.94853711      -4.81547499       0.65788198        1 
H      4.95274401      -4.85087395      -0.83287102        1 
H      0.82913202       0.86738700      -1.02652001        1 
H      1.30602396       2.74896789       1.20529997        1 
H      3.50040889       1.50792801       1.23352897        1 
H      3.72526789       1.86581898      -0.50687599        1 
H      3.60873103       3.67496395       1.69207001        1 
H      0.33660799       4.70935917       0.36102599        1 
