46
Lattice="1.0 0.0 0.0 0.0 1.0 0.0 0.0 0.0 1.0" Properties=species:S:1:pos:R:3:Z:I:1 pbc="F F F"
N      3.70405006       0.07506700      -1.78131700        7 
C      3.80215907      -0.53508300      -0.45153201        6 
C      2.41564298      -0.91944599       0.00239100        6 
O      2.16352797      -2.12923002       0.25510401        8 
C      4.50579977       0.40200600       0.58096898        6 
C      4.59968376      -0.26038301       1.96866202        6 
C      5.89720106       0.90553898       0.11455800        6 
C      6.92570210      -0.20074400      -0.13874100        6 
N      1.39040399       0.07606900       0.15005200        7 
C      0.03139800      -0.24728000       0.57916498        6 
C     -0.77778500      -0.74827200      -0.58972597        6 
O     -0.38435301      -1.78947699      -1.18061101        8 
N     -1.96305704      -0.08968600      -1.08157206        7 
C     -2.81943607       0.86490899      -0.35748300        6 
C     -2.15953708       2.21768904      -0.21812400        6 
O     -1.00489295       2.41999292      -0.68024701        8 
C     -3.31077790       0.29393801       0.99723297        6 
C     -4.07714701      -1.03542399       0.85102099        6 
C     -5.44979620      -0.89685899       0.24494199        6 
O     -5.94625521       0.23724400       0.00614800        8 
N     -6.21226406      -2.06809998      -0.04270700        7 
O     -2.84554410       3.28328896       0.35953099        8 
H      4.63706303       0.03485300      -2.25086904        1 
H      3.43064499       1.08112597      -1.69514501        1 
H      4.39570999      -1.47261906      -0.54037100        1 
H      3.87854195       1.31209099       0.70653802        1 
H      5.08001280      -1.25908995       1.90169001        1 
H      5.18394613       0.37613600       2.66682601        1 
H      3.58618093      -0.38874400       2.40404892        1 
H      5.78740788       1.51162195      -0.80960101        1 
H      6.30865288       1.59403205       0.88481498        1 
H      6.60081100      -0.86779898      -0.96271098        1 
H      7.89093494       0.26084000      -0.43562701        1 
H      7.10074997      -0.79892600       0.77874303        1 
H      1.62291896       1.07950902      -0.02336100        1 
H     -0.40966901       0.65737802       1.03231299        1 
H      0.05590300      -1.02267396       1.37457097        1 
H     -2.32310104      -0.41896600      -2.00640392        1 
H     -3.71912098       1.04658401      -0.98370898        1 
H     -3.96715689       1.02935302       1.50932097        1 
H     -2.45704699       0.12301600       1.68059695        1 
H     -3.48274302      -1.75136006       0.24507201        1 
H     -4.19709682      -1.48486900       1.86001205        1 
H     -5.82434607      -3.01688004       0.15646400        1 
H     -7.16765785      -1.98758602      -0.45625800        1 
H     -3.80398798       3.19143510       0.67245197        1 
