49
Lattice="1.0 0.0 0.0 0.0 1.0 0.0 0.0 0.0 1.0" Properties=species:S:1:pos:R:3:Z:I:1 pbc="F F F"
N      3.98968911       4.34574986       0.02229500        7 
C      3.34152699       3.29380107       0.80181497        6 
C      2.29141307       2.58612990      -0.00848000        6 
O      1.27562404       3.22515607      -0.39636701        8 
N      2.43830800       1.19482696      -0.33223900        7 
C      1.43487501       0.46918699      -1.12315702        6 
C      0.15140100       0.29786101      -0.34779000        6 
O      0.14767100       0.43784401       0.90658402        8 
C      1.98308003      -0.88653898      -1.62462997        6 
C      2.28151202      -1.87000299      -0.51448202        6 
C      1.24937999      -2.63986707       0.05149400        6 
C      3.60111403      -2.06223297      -0.06880000        6 
C      1.52887905      -3.55775499       1.06820405        6 
C      3.87608504      -2.98167896       0.94816101        6 
C      2.84054399      -3.72610307       1.51872599        6 
N     -1.05540705      -0.06159000      -1.03670204        7 
C     -2.31153607      -0.32541201      -0.32697400        6 
C     -3.23076296      -1.14288104      -1.20126402        6 
O     -3.63770700      -0.67788303      -2.29927206        8 
C     -2.96911407       1.01086795       0.08442000        6 
C     -4.28375912       0.85414600       0.88842601        6 
C     -4.94693422       2.22513199       1.07424295        6 
C     -4.04611111       0.20140900       2.25882292        6 
O     -3.64012289      -2.41452599      -0.80877501        8 
H      4.39231491       3.92205000      -0.84562302        1 
H      3.26900911       5.04580021      -0.26935500        1 
H      4.11411619       2.57466793       1.14831197        1 
H      2.86929107       3.73926306       1.70350695        1 
H      3.31827998       0.71309298      -0.04288400        1 
H      1.20669794       1.07949901      -2.02491403        1 
H      2.90494394      -0.69442803      -2.21661901        1 
H      1.25723100      -1.34454596      -2.33175302        1 
H      0.22987100      -2.53425097      -0.29704100        1 
H      4.41628313      -1.49775195      -0.50411499        1 
H      0.72862101      -4.14215899       1.50357795        1 
H      4.89306116      -3.11878395       1.29229796        1 
H      3.05542803      -4.43798208       2.30515695        1 
H     -1.01088202      -0.18585700      -2.07414293        1 
H     -2.07415295      -0.91663402       0.58225298        1 
H     -2.24779701       1.60374200       0.68820798        1 
H     -3.17248797       1.59848499      -0.83861101        1 
H     -4.99415207       0.21834201       0.31639799        1 
H     -5.91051102       2.11713791       1.61672294        1 
H     -4.28446579       2.90607309       1.65108705        1 
H     -5.16195107       2.68540502       0.08622000        1 
H     -4.98489523       0.20036501       2.85298395        1 
H     -3.26580095       0.75193202       2.82688999        1 
H     -3.73379111      -0.85627502       2.14071798        1 
H     -3.33567095      -2.82121611       0.06745000        1 
