43
Lattice="1.0 0.0 0.0 0.0 1.0 0.0 0.0 0.0 1.0" Properties=species:S:1:pos:R:3:Z:I:1 pbc="F F F"
N      4.80401278       1.44510198       0.31842500        7 
C      3.77543592       0.54473799      -0.21391401        6 
C      2.40194297       0.99398601       0.22344200        6 
O      2.27681398       1.82228100       1.16757703        8 
C      4.02074623      -0.89730698       0.27083200        6 
C      5.27682877      -1.47816300      -0.31359100        6 
O      5.36160278      -1.66659498      -1.55586004        8 
O      6.35090303      -1.82077205       0.50320202        8 
N      1.23752105       0.46568701      -0.43032399        7 
C     -0.12438300       0.84149998      -0.03400100        6 
C     -1.11528099      -0.17841201      -0.56037903        6 
O     -1.17381895      -0.37816900      -1.80514598        8 
C     -0.45851600       2.24482107      -0.57472801        6 
C     -1.81256604       2.70963311      -0.11781300        6 
O     -2.73618793       2.87429595      -0.95754898        8 
O     -2.05815601       2.96962690       1.22737598        8 
N     -2.00335789      -0.90618002       0.31321400        7 
C     -2.99056101      -1.85522497      -0.18235400        6 
C     -4.09350300      -1.13232994      -0.91207802        6 
O     -4.40897417      -1.49058497      -2.07709908        8 
C     -3.51535392      -2.58910298       1.05350101        6 
C     -3.07710505      -1.76108301       2.25870395        6 
C     -1.95827794      -0.85154098       1.76645696        6 
O     -4.77167177      -0.06899200      -0.32076100        8 
H      5.73060799       1.16832602      -0.07941400        1 
H      4.61977196       2.40745091      -0.04918200        1 
H      3.80674005       0.57587498      -1.32713795        1 
H      3.17245507      -1.55161297      -0.02611500        1 
H      4.07797289      -0.90782201       1.38117099        1 
H      6.31790018      -1.67917705       1.50557399        1 
H      1.37927103      -0.23629600      -1.19243395        1 
H     -0.16222000       0.87309003       1.07325995        1 
H      0.29638499       2.97820711      -0.22072500        1 
H     -0.41629401       2.23677897      -1.68653595        1 
H     -1.32966495       2.86699104       1.92352498        1 
H     -2.50049710      -2.58747506      -0.86317301        1 
H     -4.61960888      -2.72615790       1.04051399        1 
H     -3.04113293      -3.59376097       1.11261702        1 
H     -3.93127203      -1.14627600       2.61826301        1 
H     -2.72927999      -2.41327310       3.08919096        1 
H     -2.13034296       0.18747699       2.12115097        1 
H     -0.97312897      -1.22178197       2.12463307        1 
H     -4.53542900       0.25935599       0.60721201        1 
