59
Lattice="1.0 0.0 0.0 0.0 1.0 0.0 0.0 0.0 1.0" Properties=species:S:1:pos:R:3:Z:I:1 pbc="F F F"
N      0.98861998       0.40522599       1.41586697        7 
C      1.11628103       1.57947099       0.54952502        6 
C      0.44682601       1.35047698      -0.79225200        6 
O      0.97592402       0.57676500      -1.63431203        8 
C      2.59149504       2.02740598       0.40471700        6 
C      3.60161090       0.90791601       0.06433300        6 
C      4.26300383       0.31526399       1.31795204        6 
N      5.15927505      -0.78241599       0.95665598        7 
C      6.41965485      -0.60923702       0.28256699        6 
N      7.06341887      -1.64609504      -0.15090300        7 
N      6.99340916       0.68853301       0.09615300        7 
N     -0.76861602       2.02640009      -1.14426899        7 
C     -1.92168605       2.09846711      -0.24017900        6 
C     -2.81468606       0.91536999      -0.51692200        6 
O     -3.37048507       0.80452800      -1.64408100        8 
C     -2.67204905       3.44396091      -0.42259201        6 
C     -3.88028598       3.54592991       0.52352202        6 
C     -1.72987401       4.63336515      -0.17722100        6 
N     -3.00464702      -0.09607000       0.48364800        7 
C     -3.61287498      -1.39648700       0.17638201        6 
C     -3.93957710      -2.14547491       1.44223797        6 
O     -3.04717994      -2.37734199       2.30176210        8 
C     -2.71608591      -2.23374104      -0.76638299        6 
C     -1.24505401      -2.32604289      -0.31473300        6 
C     -0.37657100      -3.07697511      -1.28762603        6 
O     -0.86383200      -3.59475994      -2.32914901        8 
N      1.02125394      -3.20476890      -1.03006899        7 
O     -5.24322987      -2.57581592       1.66974497        8 
H     -0.01866800       0.28837299       1.67143905        1 
H      1.26744795      -0.45460200       0.89051199        1 
H      0.60281402       2.42905807       1.04974103        1 
H      2.64111805       2.80325794      -0.39146200        1 
H      2.90538192       2.53931594       1.34141195        1 
H      3.12553191       0.09387700      -0.51878899        1 
H      4.39289093       1.34134698      -0.58306599        1 
H      3.47969007      -0.07775900       1.99872601        1 
H      4.81980515       1.09287000       1.88226402        1 
H      4.85293198      -1.75198698       1.19979405        1 
H      6.69074202      -2.61483312      -0.03437500        1 
H      6.55264616       1.55110204       0.48110101        1 
H      7.89911604       0.79052699      -0.41378200        1 
H     -0.95223701       2.16708398      -2.16421509        1 
H     -1.58152902       2.04466105       0.81464899        1 
H     -3.04517698       3.51500702      -1.46878600        1 
H     -3.55760193       3.44891596       1.58248603        1 
H     -4.38993406       4.52444220       0.39298201        1 
H     -4.62181091       2.75050712       0.29985899        1 
H     -2.27874494       5.59144402      -0.30008700        1 
H     -0.89508998       4.62897587      -0.90935802        1 
H     -1.30655801       4.59214687       0.84953099        1 
H     -2.66892004       0.09800600       1.45457995        1 
H     -4.57572985      -1.21635306      -0.35127699        1 
H     -3.14017701      -3.25820899      -0.85967100        1 
H     -2.74784708      -1.77478504      -1.77853000        1 
H     -1.17992496      -2.83626890       0.66758001        1 
H     -0.82614499      -1.30530500      -0.20826399        1 
H      1.63628101      -3.71910810      -1.69891906        1 
H      1.44492495      -2.78461695      -0.17324400        1 
H     -5.48456717      -3.07778406       2.51589894        1 
