58
Lattice="1.0 0.0 0.0 0.0 1.0 0.0 0.0 0.0 1.0" Properties=species:S:1:pos:R:3:Z:I:1 pbc="F F F"
N     -1.95724201      -3.37939310       0.29395300        7 
C     -3.07399297      -2.79153991      -0.44985399        6 
C     -2.72273707      -1.39524198      -0.90794599        6 
O     -2.94787788      -1.07002795      -2.10538411        8 
C     -4.38576794      -2.83574295       0.37801799        6 
O     -5.43445492      -2.23349309      -0.33667299        8 
C     -4.27237511      -2.16587090       1.75131297        6 
N     -2.09217310      -0.46219200      -0.01631800        7 
C     -1.54169202       0.81691003      -0.48243999        6 
C     -0.49492401       1.32369804       0.49491799        6 
O     -0.65214598       2.43584704       1.06847703        8 
C     -2.67341709       1.83804095      -0.75562900        6 
C     -3.69316196       1.94911098       0.39058399        6 
C     -4.65335703       3.07451510       0.14347699        6 
O     -4.65039778       4.07926893       0.90364301        8 
N     -5.58160782       3.01053810      -0.93948102        7 
N      0.68700802       0.56035000       0.79536998        7 
C      1.19097197      -0.54316199      -0.03696800        6 
C      1.90945303      -1.57870805       0.79649198        6 
O      2.25640297      -1.32813799       1.98146498        8 
C      2.09113789      -0.00537900      -1.16472197        6 
C      3.30341792       0.71681899      -0.64404500        6 
C      3.36051512       2.04262900      -0.22334300        6 
C      4.58608580       0.22344200      -0.49933499        6 
N      4.61432505       2.35932302       0.17203601        7 
C      5.35004282       1.24736595       0.00075300        6 
C      5.12756586      -1.03618097      -0.76010501        6 
C      6.70749998       1.08326399       0.27318701        6 
C      6.49513388      -1.23052001      -0.49408501        6 
C      7.28156090      -0.17583200       0.01993200        6 
O      2.20117211      -2.82883191       0.25797999        8 
H     -1.11933899      -3.40471697      -0.33256501        1 
H     -2.19057202      -4.37684011       0.50595897        1 
H     -3.24672198      -3.41236305      -1.35984504        1 
H     -4.63974905      -3.90616488       0.56249702        1 
H     -5.67679310      -2.85591412      -1.07140994        1 
H     -4.15536118      -1.06903696       1.65023994        1 
H     -5.20020819      -2.35558295       2.33157611        1 
H     -3.41722107      -2.57854295       2.32640696        1 
H     -1.90239406      -0.76429898       0.96624202        1 
H     -1.01614201       0.65317899      -1.44847798        1 
H     -3.21025109       1.53423202      -1.68001294        1 
H     -2.22560811       2.83549905      -0.96274298        1 
H     -4.27361202       1.00704896       0.47340500        1 
H     -3.17043090       2.11524796       1.35617995        1 
H     -5.62216902       2.17086196      -1.55868495        1 
H     -6.24339199       3.79922700      -1.11313295        1 
H      1.32556403       0.95951599       1.52087796        1 
H      0.34111699      -1.07313895      -0.51002800        1 
H      2.40708590      -0.84448898      -1.82050300        1 
H      1.50654995       0.69121897      -1.80319703        1 
H      2.52958202       2.73601294      -0.20841400        1 
H      4.94066286       3.28242111       0.53511500        1 
H      4.52173519      -1.84211695      -1.15198398        1 
H      7.30182886       1.89726901       0.66764700        1 
H      6.94741106      -2.19513106      -0.68417603        1 
H      8.33263683      -0.33725700       0.22078501        1 
H      1.93026805      -3.06923509      -0.68796200        1 
