54
Lattice="1.0 0.0 0.0 0.0 1.0 0.0 0.0 0.0 1.0" Properties=species:S:1:pos:R:3:Z:I:1 pbc="F F F"
N     -4.69170713      -2.86401105       0.30265000        7 
C     -3.79486799      -2.81159711      -0.85180497        6 
C     -2.52545691      -2.09111905      -0.48316199        6 
O     -1.41794205      -2.67552590      -0.63204098        8 
C     -4.48204088      -2.10710311      -2.02491498        6 
N     -2.57187200      -0.75419903       0.03902800        7 
C     -1.35370600      -0.00387100       0.36469099        6 
C     -0.74661398      -0.54995102       1.63738894        6 
O     -1.50643206      -0.79265797       2.61409092        8 
C     -1.66253197       1.49509501       0.54439503        6 
C     -2.10138988       2.14954495      -0.77740699        6 
C     -2.27890110       3.67074990      -0.65303802        6 
C     -3.51928210       4.05638981       0.17081299        6 
N     -3.73650694       5.50140095       0.15543100        7 
N      0.66670400      -0.77061301       1.79131496        7 
C      1.67733395      -0.41290700       0.78908801        6 
C      1.71968806      -1.46652806      -0.28791299        6 
O      1.61121094      -1.13158500      -1.49695694        8 
C      3.05947399      -0.26791000       1.45756900        6 
C      4.10937119       0.21718000       0.48726901        6 
C      5.13885403      -0.64091498       0.06388000        6 
C      4.07033920       1.53558803       0.00139800        6 
C      6.10722494      -0.18828100      -0.83770502        6 
C      5.04092216       1.98386204      -0.89972800        6 
C      6.05799389       1.12250996      -1.31963897        6 
O      1.89116800      -2.81065607       0.03324200        8 
H     -5.53052807      -3.43261790       0.04256800        1 
H     -4.21137285      -3.39250398       1.06752098        1 
H     -3.54683208      -3.85053492      -1.16976094        1 
H     -4.80488682      -1.08337498      -1.73886299        1 
H     -3.78845310      -2.03902292      -2.89040494        1 
H     -5.37670279      -2.68425798      -2.34143996        1 
H     -3.50656295      -0.30992100       0.18688300        1 
H     -0.64648002      -0.10656200      -0.48165599        1 
H     -2.45544910       1.61622703       1.31335199        1 
H     -0.74681902       2.01112199       0.91001397        1 
H     -3.04742408       1.69244206      -1.14007795        1 
H     -1.32149696       1.95925701      -1.54704404        1 
H     -1.36882198       4.12200880      -0.20071000        1 
H     -2.38683200       4.08827496      -1.67790198        1 
H     -4.41971302       3.55287600      -0.24357300        1 
H     -3.39505506       3.72954988       1.22450805        1 
H     -2.87989306       5.97581577       0.52357900        1 
H     -3.87293792       5.81275082      -0.83385402        1 
H      0.98694199      -1.15777397       2.70877504        1 
H      1.41331804       0.57296699       0.34667501        1 
H      2.98906803       0.46008301       2.29522395        1 
H      3.36197090      -1.24092901       1.90417397        1 
H      5.18820810      -1.66080201       0.42458799        1 
H      3.29060292       2.21521306       0.32219401        1 
H      6.89572477      -0.85433602      -1.16344297        1 
H      5.00510502       2.99963903      -1.27170706        1 
H      6.80841208       1.47098994      -2.01740193        1 
H      1.97809505      -3.11565709       0.99505103        1 
