55
Lattice="1.0 0.0 0.0 0.0 1.0 0.0 0.0 0.0 1.0" Properties=species:S:1:pos:R:3:Z:I:1 pbc="F F F"
N     -4.95596218      -1.66262197      -0.72178501        7 
C     -3.80878091      -0.75264698      -0.76222098        6 
C     -2.83923793      -1.08779299       0.34664199        6 
O     -3.20622897      -0.97737998       1.54868603        8 
C     -4.30261612       0.70784402      -0.67562401        6 
C     -3.25563407       1.75449896      -1.10739696        6 
C     -2.23715305       2.08649707      -0.00650400        6 
N     -1.43686903       3.25582004      -0.37208900        7 
C     -0.43809399       3.81329489       0.49549800        6 
N      0.20369799       4.87267303       0.11734700        7 
N     -0.13261899       3.20942593       1.75929201        7 
N     -1.51093602      -1.53358305       0.03068200        7 
C     -0.46739900      -1.72528994       1.04535496        6 
C      0.71178401      -0.82124001       0.77281302        6 
O      1.11106801      -0.05679900       1.69171906        8 
C     -0.05794100      -3.20749998       1.16416395        6 
C      0.50784600      -3.79366112      -0.09539000        6 
O     -0.24792600      -4.06326199      -1.06697094        8 
O      1.87010598      -4.06401110      -0.18066400        8 
N      1.36308503      -0.81069100      -0.51244497        7 
C      2.53323388       0.01162500      -0.85232198        6 
C      3.76478910      -0.49871099      -0.14160100        6 
O      3.76939702      -0.66787499       1.10725796        8 
C      2.23155808       1.54349804      -0.67486697        6 
C      3.07401896       2.24903393       0.40395901        6 
C      2.38124394       2.29445291      -2.00672603        6 
O      4.90804577      -0.79521197      -0.87786603        8 
H     -4.61041594      -2.64457011      -0.82911998        1 
H     -5.42522478      -1.59460902       0.21129100        1 
H     -3.30855894      -0.88959098      -1.74624395        1 
H     -5.16953421       0.81165397      -1.36526299        1 
H     -4.68397713       0.93500698       0.34426600        1 
H     -2.72407293       1.41796303      -2.02406311        1 
H     -3.80266309       2.68819904      -1.36518097        1 
H     -2.77545595       2.29950404       0.94240201        1 
H     -1.55554605       1.22600698       0.14442199        1 
H     -1.59231699       3.71740389      -1.29788995        1 
H      0.94265699       5.31007624       0.71185398        1 
H     -0.61657101       2.34563899       2.08678389        1 
H      0.60461497       3.61686611       2.37653303        1 
H     -1.27669597      -1.69604003      -0.97340000        1 
H     -0.86794901      -1.44407201       2.04459906        1 
H      0.69802099      -3.30243993       1.97419298        1 
H     -0.94048601      -3.80876803       1.47262502        1 
H      2.26921797      -4.46088886      -1.02281499        1 
H      0.97109300      -1.40377402      -1.27659905        1 
H      2.73618102      -0.17042699      -1.93232799        1 
H      1.16734302       1.66250205      -0.37955201        1 
H      4.15505695       2.20563507       0.15139100        1 
H      2.77782011       3.31650805       0.48437601        1 
H      2.90999198       1.78644300       1.39793801        1 
H      3.42919898       2.23399997      -2.37150192        1 
H      1.70582700       1.85471404      -2.77164102        1 
H      2.10386300       3.36346889      -1.88352096        1 
H      5.74439907      -1.14066005      -0.42252800        1 
