45
Lattice="1.0 0.0 0.0 0.0 1.0 0.0 0.0 0.0 1.0" Properties=species:S:1:pos:R:3:Z:I:1 pbc="F F F"
N      1.28431594      -2.39104509       0.54062903        7 
C      1.52850604      -0.94823003       0.62554598        6 
C      0.33210900      -0.21502100       0.08189900        6 
O     -0.02077300      -0.40731999      -1.11385298        8 
C      2.80082107      -0.52411199      -0.14249501        6 
C      4.08109903      -1.09347296       0.48419699        6 
C      5.29831600      -0.56111997      -0.21295699        6 
O      6.02555990      -1.33659303      -0.88775599        8 
O      5.64422178       0.78360802      -0.11160800        8 
N     -0.40132901       0.69687903       0.91813803        7 
C     -1.57734203       1.45254505       0.46842101        6 
C     -2.64849710       0.47938699       0.02851300        6 
O     -2.98912001       0.39699000      -1.18380499        8 
C     -1.19641399       2.51203609      -0.61375999        6 
C     -2.36751699       3.47376108      -0.89369899        6 
C      0.09245400       3.30476308      -0.26727399        6 
C      0.02335000       4.08963394       1.04593897        6 
N     -3.23671198      -0.39985901       0.99711102        7 
C     -4.09843493      -1.51619196       0.61871600        6 
C     -3.30427599      -2.55548310      -0.10766600        6 
O     -3.62264609      -2.89130092      -1.27958298        8 
O     -2.20917606      -3.14833307       0.51314098        8 
H      1.42261004      -2.71931601      -0.44322899        1 
H      1.97255397      -2.89289904       1.14649296        1 
H      1.65719295      -0.67338800       1.69625497        1 
H      2.73266697      -0.85065800      -1.20409298        1 
H      2.86019611       0.58710098      -0.13463800        1 
H      4.07368183      -2.20182991       0.40590799        1 
H      4.13687897      -0.81956899       1.55962300        1 
H      5.09563684       1.42675304       0.44644001        1 
H     -0.10132500       0.81621099       1.91198397        1 
H     -1.98921204       2.00197101       1.34378302        1 
H     -0.98113799       1.98085594      -1.56678200        1 
H     -2.71960998       3.95834994       0.04086500        1 
H     -2.05848408       4.26206017      -1.61274505        1 
H     -3.22376704       2.93116689      -1.34358501        1 
H      0.95776999       2.60962391      -0.21989900        1 
H      0.31407100       4.01763391      -1.09135199        1 
H     -0.14305000       3.41155910       1.90758502        1 
H     -0.78127497       4.85220289       1.01095498        1 
H      0.98744702       4.61643505       1.20663702        1 
H     -3.02424312      -0.25413501       2.00997210        1 
H     -4.53100395      -1.97591805       1.53276205        1 
H     -4.93693590      -1.14715803      -0.01120500        1 
H     -1.65415704      -3.84625506       0.03255200        1 
