60
Lattice="1.0 0.0 0.0 0.0 1.0 0.0 0.0 0.0 1.0" Properties=species:S:1:pos:R:3:Z:I:1 pbc="F F F"
N     -5.07128477       1.81253505       0.10211000        7 
C     -4.33189678       0.65233600       0.60783303        6 
C     -2.84730697       0.93181998       0.65275800        6 
O     -2.26197004       0.91553801       1.76847601        8 
C     -4.62878513      -0.59695601      -0.24140801        6 
C     -6.08071613      -0.96965301      -0.18509300        6 
N     -6.90712976      -0.94233298      -1.25002599        7 
C     -6.76633406      -1.40294397       0.92857999        6 
C     -8.09074688      -1.35888302      -0.75207698        6 
N     -8.03369236      -1.64421499       0.56265700        7 
N     -2.11318588       1.21028602      -0.55527800        7 
C     -0.66512603       1.44415498      -0.63485801        6 
C      0.10993600       0.21508300      -0.22393900        6 
O      0.12966900      -0.14376800       0.98452902        8 
C     -0.24343000       2.69545603       0.16468900        6 
C      1.23488200       2.97539496       0.02287200        6 
C      1.76420605       3.39592505      -1.20942295        6 
C      2.10087109       2.79459000       1.11570096        6 
C      3.13794208       3.61715603      -1.34815395        6 
C      3.47344398       3.01841903       0.97253400        6 
C      3.99213195       3.42612195      -0.25893801        6 
N      0.86482102      -0.51504999      -1.20501006        7 
C      2.00080800      -1.38100302      -0.87259799        6 
C      1.52750599      -2.54821301      -0.03669400        6 
O      1.94984102      -2.71916509       1.13830805        8 
C      3.11823010      -0.54278302      -0.20324101        6 
C      4.47669697      -1.20428097      -0.05015900        6 
C      5.49486685      -0.46359599       0.57681799        6 
C      4.77306318      -2.50661302      -0.50888300        6 
C      6.77136707      -1.00632095       0.74768400        6 
C      6.05232096      -3.04426599      -0.33426699        6 
C      7.04982901      -2.29600596       0.29309401        6 
O      0.60705799      -3.44983292      -0.56230998        8 
H     -4.75409794       2.04401994      -0.86688900        1 
H     -4.85749388       2.63772011       0.70877898        1 
H     -4.67733288       0.45129001       1.64734805        1 
H     -4.34235811      -0.41622999      -1.29984903        1 
H     -4.02875519      -1.45585203       0.13078800        1 
H     -6.37365389      -1.53603601       1.92824900        1 
H     -8.98876190      -1.45516801      -1.34786797        1 
H     -8.81192207      -1.98472297       1.16931903        1 
H     -2.64101696       1.24078500      -1.45603800        1 
H     -0.42850900       1.65096498      -1.70217299        1 
H     -0.81384599       3.57651901      -0.20159200        1 
H     -0.50036699       2.57035899       1.23683000        1 
H      1.11449099       3.54716611      -2.06229305        1 
H      1.71754205       2.46487308       2.07323408        1 
H      3.54062009       3.93490100      -2.30116701        1 
H      4.13612509       2.86876893       1.81502604        1 
H      5.05566216       3.59372997      -0.36905599        1 
H      0.66229802      -0.34730101      -2.21654606        1 
H      2.40047097      -1.78441000      -1.82827199        1 
H      2.77592111      -0.21136101       0.80103499        1 
H      3.26573396       0.37618899      -0.81222099        1 
H      5.29841280       0.53949100       0.93508601        1 
H      4.03312922      -3.12011099      -1.00040400        1 
H      7.54520798      -0.42550400       1.23280799        1 
H      6.27058887      -4.04397583      -0.68734199        1 
H      8.03874683      -2.71534705       0.42599601        1 
H      0.24712200      -3.34111595      -1.50296104        1 
