48
Lattice="1.0 0.0 0.0 0.0 1.0 0.0 0.0 0.0 1.0" Properties=species:S:1:pos:R:3:Z:I:1 pbc="F F F"
N      1.51285505      -1.88363004       0.81140202        7 
C      1.59597695      -0.49969199       1.28737402        6 
C      0.22381300       0.04780600       1.60640800        6 
O     -0.02050100       0.43834701       2.78052402        8 
C      2.31554198       0.39026099       0.25734901        6 
C      3.72134304      -0.08821900      -0.00813100        6 
C      4.71467113       0.05079300       0.97580302        6 
C      4.05558300      -0.66604400      -1.24449098        6 
C      6.01863194      -0.38937300       0.72956198        6 
C      5.36037016      -1.10569406      -1.48789597        6 
C      6.34535599      -0.96876699      -0.50054997        6 
O      7.64843988      -1.40341401      -0.73188001        8 
N     -0.79742903       0.12003300       0.59692597        7 
C     -2.14866090       0.61869299       0.88818902        6 
C     -3.19000506       0.00516400      -0.02215100        6 
O     -2.84454989      -0.62003303      -1.06236398        8 
C     -2.18765807       2.16361094       0.85236901        6 
C     -2.02384710       2.78667212      -0.54774201        6 
C     -0.62709999       2.66045308      -1.08175397        6 
O     -0.41250500       1.97603703      -2.11758399        8 
N      0.45666301       3.33863997      -0.44677001        7 
N     -4.58235884       0.14618100       0.29661399        7 
C     -5.63991785      -0.37728101      -0.56399697        6 
C     -5.66242504      -1.87159395      -0.50718701        6 
O     -5.48023605      -2.54784608      -1.55463696        8 
O     -5.88828087      -2.51445794       0.70577699        8 
H      0.94521898      -1.92631996      -0.06566400        1 
H      1.02180505      -2.45949793       1.53380895        1 
H      2.19594193      -0.49501699       2.22512007        1 
H      2.36245298       1.43391097       0.63741797        1 
H      1.73458099       0.41350400      -0.69008899        1 
H      4.47969198       0.50304598       1.93132401        1 
H      3.30640101      -0.78219098      -2.01781988        1 
H      6.77635622      -0.27868801       1.49482799        1 
H      5.60458803      -1.55240202      -2.44328499        1 
H      7.91674519      -1.82695997      -1.61250699        1 
H     -0.54868197      -0.15117700      -0.37991300        1 
H     -2.41981602       0.29842600       1.91848195        1 
H     -1.41388798       2.56948090       1.53903794        1 
H     -3.16649103       2.49773598       1.25987697        1 
H     -2.27061009       3.86822605      -0.48653999        1 
H     -2.74808693       2.33314800      -1.25786304        1 
H      1.42172098       3.27023005      -0.83914000        1 
H      0.29551101       3.93119597       0.39739799        1 
H     -4.85711098       0.67998201       1.15186501        1 
H     -5.48385286      -0.02420100      -1.60675800        1 
H     -6.62344122       0.00492200      -0.21660800        1 
H     -5.90612221      -3.52571893       0.76219797        1 
