16
	Energy: -147023.0504501
C          0.44051        1.42276        0.49490
C         -1.55665        0.68949       -0.23046
C         -1.55665       -0.68949       -0.23046
C          0.44052       -1.42276        0.49490
C          1.30957       -0.70366       -0.29208
C          1.30957        0.70366       -0.29208
H          0.37869        2.50379        0.39220
H         -2.05862        1.23206        0.56639
H         -2.05862       -1.23206        0.56639
H          0.37869       -2.50379        0.39220
H          1.84689       -1.21767       -1.08762
H          1.84688        1.21767       -1.08762
H         -1.44805       -1.23191       -1.16356
H         -1.44805        1.23191       -1.16356
H          0.12049       -1.04001        1.45841
H          0.12049        1.04001        1.45841
